-------------------------------------------------------
          Amber 18 PMEMD                              2018
          -------------------------------------------------------

  [-O]verwriting output

File Assignments:

 Here is the input file:

Run MD NPT 625frames 25ns
&cntrl
    imin = 0,
    nstlim = 12500000, dt = 0.002,
    ntx = 5, irest = 1, iwrap = 1,
    ntpr = 20000, ntwe = 20000, ntwx = 20000, ntwr = 20000,
    ntb = 2,
    ntt = 3, gamma_ln = 1,
    ig = -1,
    temp0 = 298.0,
    ntp = 1,
    ntc = 2, ntf = 2,
    cut = 8,
    ioutfm = 1,

    ntr = 0,

/

Note: ig = -1. Setting random seed to   544372 based on wallclock time in
      microseconds.

--------------------------------------------------------------------------------
   1.  RESOURCE   USE:
--------------------------------------------------------------------------------

 getting box info from netcdf restart file
 NATOM  =   47177 NTYPES =      18 NBONH =   45143 MBONA  =    1998
 NTHETH =    4291 MTHETA =    2711 NPHIH =    8827 MPHIA  =    8581
 NHPARM =       0 NPARM  =       0 NNB   =   78932 NRES   =   14755
 NBONA  =    1998 NTHETA =    2711 NPHIA =    8581 NUMBND =      84
 NUMANG =     185 NPTRA  =     222 NATYP =      48 NPHB   =       1
 IFBOX  =       1 NMXRS  =      24 IFCAP =       0 NEXTRA =       0
 NCOPY  =       0

     BOX TYPE: RECTILINEAR

--------------------------------------------------------------------------------
   2.  CONTROL  DATA  FOR  THE  RUN
--------------------------------------------------------------------------------

default_name

General flags:
     imin    =       0, nmropt  =       0

Nature and format of input:
     ntx     =       5, irest   =       1, ntrx    =       1

Nature and format of output:
     ntxo    =       2, ntpr    =   20000, ntrx    =       1, ntwr    =   20000
     iwrap   =       1, ntwx    =   20000, ntwv    =       0, ntwe    =   20000
     ioutfm  =       1, ntwprt  =       0, idecomp =       0, rbornstat=      0

Potential function:
     ntf     =       2, ntb     =       2, igb     =       0, nsnb    =      25
     ipol    =       0, gbsa    =       0, iesp    =       0
     dielc   =   1.00000, cut     =   8.00000, intdiel =   1.00000

Frozen or restrained atoms:
     ibelly  =       0, ntr     =       0

Molecular dynamics:
     nstlim  =  12500000, nscm    =      1000, nrespa  =         1
     t       =   0.00000, dt      =   0.00200, vlimit  =  -1.00000

Langevin dynamics temperature regulation:
     ig      =  544372
     temp0   = 298.00000, tempi   =   0.00000, gamma_ln=   1.00000

Pressure regulation:
     ntp     =       1
     pres0   =   1.00000, comp    =  44.60000, taup    =   1.00000

SHAKE:
     ntc     =       2, jfastw  =       0
     tol     =   0.00001

Ewald parameters:
     verbose =       0, ew_type =       0, nbflag  =       1, use_pme =       1
     vdwmeth =       1, eedmeth =       1, netfrc  =       1
     Box X =   77.722   Box Y =   78.102   Box Z =   77.863
     Alpha =   90.000   Beta  =   90.000   Gamma =   90.000
     NFFT1 =   80       NFFT2 =   80       NFFT3 =   80
     Cutoff=    8.000   Tol   =0.100E-04
     Ewald Coefficient =  0.34864
     Interpolation order =    4

--------------------------------------------------------------------------------
   3.  ATOMIC COORDINATES AND VELOCITIES
--------------------------------------------------------------------------------

default_name
 begin time read from input coords =  1000.000 ps

 Number of triangulated 3-point waters found:    14418

     Sum of charges from parm topology file =  -0.00000014
     Forcing neutrality...

--------------------------------------------------------------------------------
   4.  RESULTS
 NSTEP =    20000   TIME(PS) =    1040.000  TEMP(K) =   299.32  PRESS =   113.8
 Etot   =   -124182.6395  EKtot   =     28665.7637  EPtot      =   -152848.4032
 BOND   =       736.9952  ANGLE   =      2002.8594  DIHED      =      3086.1225
 1-4 NB =       876.0860  1-4 EEL =      9660.1023  VDWAALS    =     18981.2665
 EELEC  =   -188191.8351  EHBOND  =         0.0000  RESTRAINT  =         0.0000
 EKCMT  =     12945.3511  VIRIAL  =     11782.5214  VOLUME     =    473076.4140
                                                    Density    =         1.0185
 ------------------------------------------------------------------------------

      A V E R A G E S   O V E R     625 S T E P S

 NSTEP = 12500000   TIME(PS) =   26000.000  TEMP(K) =   297.99  PRESS =    -4.6
 Etot   =   -124397.0756  EKtot   =     28538.6119  EPtot      =   -152935.6876
 BOND   =       746.6444  ANGLE   =      2013.7554  DIHED      =      3064.5797
 1-4 NB =       860.5357  1-4 EEL =      9628.8110  VDWAALS    =     18871.2876
 EELEC  =   -188121.3014  EHBOND  =         0.0000  RESTRAINT  =         0.0000
 EKCMT  =     12936.2289  VIRIAL  =     12982.6962  VOLUME     =    471872.2672
                                                    Density    =         1.0211
 ------------------------------------------------------------------------------

      R M S  F L U C T U A T I O N S

 NSTEP = 12500000   TIME(PS) =   26000.000  TEMP(K) =     1.36  PRESS =   104.9
 Etot   =       232.4675  EKtot   =       129.9793  EPtot      =       191.1720
 BOND   =        21.9374  ANGLE   =        34.1000  DIHED      =        19.9844
 1-4 NB =        12.5297  1-4 EEL =        43.6517  VDWAALS    =       169.2138
 EELEC  =       287.6614  EHBOND  =         0.0000  RESTRAINT  =         0.0000
 EKCMT  =        91.0667  VIRIAL  =      1077.5328  VOLUME     =       583.0358
                                                    Density    =         0.0013
 ------------------------------------------------------------------------------
